REMARK  6 active torsions:
REMARK  status: ('A' for Active; 'I' for Inactive)
REMARK    1  A    between atoms: O3_4  and  S2_1 
REMARK    2  A    between atoms: C14_24  and  O3_4 
REMARK    3  A    between atoms: C10_20  and  N2_6 
REMARK    4  A    between atoms: C3_13  and  N2_6 
REMARK    5  A    between atoms: N2_6  and  N3_7 
REMARK    6  A    between atoms: C10_20  and  C11_21 
ROOT
HETATM    1  S2  4TZ A 270      20.447  26.373  19.333  1.00 34.37     0.406 S 
HETATM    2  O1  4TZ A 270      20.672  25.187  20.085  1.00 40.00    -0.172 OA
HETATM    3  O2  4TZ A 270      19.122  26.899  19.210  1.00 34.76    -0.172 OA
HETATM    4  N1  4TZ A 270      21.160  26.235  17.963  1.00 38.13    -0.021 N 
ENDROOT
BRANCH   1   5
HETATM    5  O3  4TZ A 270      21.218  27.486  20.186  1.00 40.36    -0.212 OA
BRANCH   5   6
HETATM    6  C14 4TZ A 270      21.337  28.797  19.759  1.00 44.80     0.115 A 
HETATM    7  C13 4TZ A 270      22.460  29.200  18.972  1.00 45.54     0.025 A 
HETATM    8  C12 4TZ A 270      22.580  30.547  18.549  1.00 49.21    -0.000 A 
HETATM    9  C11 4TZ A 270      21.567  31.517  18.913  1.00 49.39     0.002 A 
HETATM   10  C16 4TZ A 270      20.441  31.109  19.700  1.00 47.98    -0.000 A 
HETATM   11  C15 4TZ A 270      20.324  29.748  20.125  1.00 45.89     0.025 A 
BRANCH   9  12
HETATM   12  C10 4TZ A 270      21.710  32.974  18.471  1.00 50.57     0.152 C 
BRANCH  12  13
HETATM   13  N2  4TZ A 270      23.095  33.555  18.724  1.00 53.10    -0.267 N 
BRANCH  13  14
HETATM   14  C3  4TZ A 270      23.770  33.709  20.050  1.00 51.26     0.041 A 
HETATM   15  C4  4TZ A 270      23.130  33.298  21.318  1.00 50.48     0.068 A 
HETATM   16  C5  4TZ A 270      23.782  33.449  22.574  1.00 50.11    -0.010 A 
HETATM   17  C6  4TZ A 270      25.101  34.013  22.650  1.00 50.15     0.061 A 
HETATM   18  C9  4TZ A 270      25.763  34.170  23.911  1.00 49.59     0.100 C 
HETATM   19  C7  4TZ A 270      25.760  34.427  21.435  1.00 49.61    -0.010 A 
HETATM   20  N6  4TZ A 270      26.286  34.331  24.919  1.00 51.18    -0.191 NA
HETATM   21  C8  4TZ A 270      25.115  34.280  20.169  1.00 51.32     0.068 A 
ENDBRANCH  13  14
BRANCH  13  22
HETATM   22  N3  4TZ A 270      23.581  34.305  17.602  0.50 54.62    -0.206 N 
HETATM   23  C1  4TZ A 270      24.456  33.868  16.631  0.50 55.69     0.223 A 
HETATM   24  N4  4TZ A 270      24.670  34.812  15.765  0.50 56.02    -0.124 NA
HETATM   25  N5  4TZ A 270      23.920  35.919  16.157  0.50 56.14    -0.124 NA
HETATM   26  C2  4TZ A 270      23.283  35.603  17.242  0.50 55.73     0.223 A 
ENDBRANCH  13  22
ENDBRANCH  12  13
ENDBRANCH   9  12
ENDBRANCH   5   6
ENDBRANCH   1   5
TORSDOF 6
